# created with PyMOL 2.5.5
@<TRIPOS>MOLECULE
vert12
53 54 1                 
SMALL
USER_CHARGES
@<TRIPOS>ATOM
1	 C01	43.245	46.420	46.607	c3	784	VRT	0.000	
2	 C02	42.169	47.388	46.060	c3	784	VRT	0.000	
3	 C03	41.455	48.061	47.222	c2	784	VRT	0.000	
4	 C04	42.024	48.833	48.177	c2	784	VRT	0.000	
5	 C05	41.366	48.949	49.545	c3	784	VRT	0.000	
6	 C06	42.209	48.488	50.767	c3	784	VRT	0.000	
7	 C07	43.032	47.220	50.647	c2	784	VRT	0.000	
8	 C08	42.735	45.954	51.023	c2	784	VRT	0.000	
9	 C09	43.747	44.816	50.868	c3	784	VRT	0.000	
10	 C10	43.682	43.965	49.564	c3	784	VRT	0.000	
11	 C11	43.993	44.806	48.302	c3	784	VRT	0.000	
12	 C12	45.185	44.358	47.418	c2	784	VRT	1.000	
13	 C13	45.559	45.417	46.351	c3	784	VRT	0.000	
14	 C14	44.378	46.096	45.625	c3	784	VRT	0.000	
15	 C15	42.774	45.097	47.342	c3	784	VRT	0.000	
16	 C16	42.544	43.915	46.357	c3	784	VRT	0.000	
17	 C17	41.416	45.223	48.059	c3	784	VRT	0.000	
18	 C18	46.430	43.915	48.175	c3	784	VRT	0.000	
19	 C19	41.421	45.553	51.636	c3	784	VRT	0.000	
20	 C20	43.338	49.550	48.012	c3	784	VRT	0.000	
21	 H04	40.378	47.906	47.293	ha	784	VRT	0.000	
22	 H09	44.012	47.347	50.188	ha	784	VRT	0.000	
23	 H01	43.754	47.032	47.362	hc	784	VRT	0.000	
24	 H02	41.446	46.841	45.445	hc	784	VRT	0.000	
25	 H03	42.615	48.154	45.416	hc	784	VRT	0.000	
26	 H05	41.069	49.994	49.701	hc	784	VRT	0.000	
27	 H06	40.431	48.371	49.557	hc	784	VRT	0.000	
28	 H07	41.544	48.422	51.639	hc	784	VRT	0.000	
29	 H08	42.911	49.295	51.017	hc	784	VRT	0.000	
30	 H10	43.638	44.139	51.724	hc	784	VRT	0.000	
31	 H11	44.762	45.225	50.960	hc	784	VRT	0.000	
32	 H12	42.718	43.457	49.502	hc	784	VRT	0.000	
33	 H13	44.409	43.155	49.676	hc	784	VRT	0.000	
34	 H14	44.339	45.761	48.713	hc	784	VRT	0.000	
35	 H15	46.206	44.957	45.595	hc	784	VRT	0.000	
36	 H16	46.148	46.206	46.837	hc	784	VRT	0.000	
37	 H17	44.019	45.469	44.802  hc	784	VRT	0.000	
38	 H18	44.747	47.017	45.157	hc	784	VR4	0.000	
39	 H19	42.044	43.081	46.865	hc	784	VR4	0.000	
40	 H20	41.939	44.166	45.482	hc	784	VR4	0.000	
41	 H21	43.499	43.543	45.967	hc	784	VRT	0.000	
42	 H22	40.634	44.684	47.514	hc	784	VRT	0.000	
43	 H23	41.423	44.768	49.053	hc	784	VRT	0.000	
44	 H24	41.096	46.251	48.177	hc	784	VRT	0.000	
45	 H25	46.875	44.742	48.737	hc	784	VRT	0.000	
46	 H26	46.204	43.095	48.863	hc	784	VRT	0.000	
47	 H27	47.187	43.526	47.485	hc	784	VRT	0.000	
48	 H28	41.541	44.624	52.205	hc	784	VRT	0.000	
49	 H29	41.015	46.312	52.309	hc	784	VRT	0.000	
50	 H30	40.672	45.383	50.856	hc	784	VRT	0.000	
51	 H31	43.695	49.505	46.980	hc	784	VRT	0.000	
52	 H32	43.276	50.603	48.299	hc	784	VRT	0.000	
53	 H33	44.094	49.090	48.657	hc	784	VRT	0.000	
@<TRIPOS>BOND
1 1 2 1
2 1 14 1
3 1 15 1
4 1 23 1
5 2 3 1
6 2 24 1
7 2 25 1
8 3 4 2
9 3 21 1
10 4 5 1
11 4 20 1
12 5 6 1
13 5 26 1
14 5 27 1
15 6 7 1
16 6 28 1
17 6 29 1
18 7 8 2
19 7 22 1
20 8 9 1
21 8 19 1
22 9 10 1
23 9 30 1
24 9 31 1
25 10 11 1
26 10 32 1
27 10 33 1
28 11 12 1
29 11 15 1
30 11 34 1
31 12 13 1
32 12 18 1
33 13 14 1
34 13 35 1
35 13 36 1
36 14 37 1
37 14 38 1
38 15 16 1
39 15 17 1
40 16 39 1
41 16 40 1
42 16 41 1
43 17 42 1
44 17 43 1
45 17 44 1
46 18 45 1
47 18 46 1
48 18 47 1
49 19 48 1
50 19 49 1
51 19 50 1
52 20 51 1
53 20 52 1
54 20 53 1
@<TRIPOS>SUBSTRUCTURE
1	VRT	1	GROUP	1 ****	VRT
